<?xml version="1.0" encoding="UTF-8"?>
<connections>
    <!-- No connections needed for simple crossing -->
</connections>