<?xml version="1.0" encoding="UTF-8"?>
<edges>
    <!-- North to South -->
    <edge id="north_to_south" from="north" to="south" priority="1" numLanes="2" speed="13.89"/>
    
    <!-- South to North -->
    <edge id="south_to_north" from="south" to="north" priority="1" numLanes="2" speed="13.89"/>
    
    <!-- East to West -->
    <edge id="east_to_west" from="east" to="west" priority="1" numLanes="2" speed="13.89"/>
    
    <!-- West to East -->
    <edge id="west_to_east" from="west" to="east" priority="1" numLanes="2" speed="13.89"/>
</edges>