<?xml version="1.0" encoding="UTF-8"?>

<!-- generated on 2025-09-17 05:46:40 by Eclipse SUMO netconvert Version 1.24.0
<netconvertConfiguration xmlns:xsi="http://www.w3.org/2001/XMLSchema-instance" xsi:noNamespaceSchemaLocation="http://sumo.dlr.de/xsd/netconvertConfiguration.xsd">

    <input>
        <node-files value="networks/simple_intersection.nod.xml"/>
        <edge-files value="networks/simple_intersection.edg.xml"/>
        <connection-files value="networks/simple_intersection.con.xml"/>
    </input>

    <output>
        <output-file value="networks/simple_intersection.net.xml"/>
    </output>

</netconvertConfiguration>
-->

<net version="1.20" junctionCornerDetail="5" limitTurnSpeed="5.50" xmlns:xsi="http://www.w3.org/2001/XMLSchema-instance" xsi:noNamespaceSchemaLocation="http://sumo.dlr.de/xsd/net_file.xsd">

    <location netOffset="200.00,200.00" convBoundary="0.00,0.00,400.00,400.00" origBoundary="-200.00,-200.00,200.00,200.00" projParameter="!"/>

    <edge id=":center_0" function="internal">
        <lane id=":center_0_0" index="0" speed="5.58" length="14.02" shape="195.20,210.40 197.60,206.80 200.00,205.60 202.40,206.80 204.80,210.40"/>
    </edge>
    <edge id=":center_1" function="internal">
        <lane id=":center_1_0" index="0" speed="9.26" length="19.35" shape="198.40,210.40 199.15,205.15 201.40,201.40 205.15,199.15 210.40,198.40"/>
    </edge>
    <edge id=":center_2" function="internal">
        <lane id=":center_2_0" index="0" speed="3.65" length="4.67" shape="198.40,210.40 199.20,209.20 200.00,208.80 200.80,209.20 201.60,210.40"/>
    </edge>
    <edge id=":center_3" function="internal">
        <lane id=":center_3_0" index="0" speed="5.58" length="14.02" shape="210.40,204.80 206.80,202.40 205.60,200.00 206.80,197.60 210.40,195.20"/>
    </edge>
    <edge id=":center_4" function="internal">
        <lane id=":center_4_0" index="0" speed="9.26" length="19.35" shape="210.40,201.60 205.15,200.85 201.40,198.60 199.15,194.85 198.40,189.60"/>
    </edge>
    <edge id=":center_5" function="internal">
        <lane id=":center_5_0" index="0" speed="3.65" length="4.67" shape="210.40,201.60 209.20,200.80 208.80,200.00 209.20,199.20 210.40,198.40"/>
    </edge>
    <edge id=":center_6" function="internal">
        <lane id=":center_6_0" index="0" speed="5.58" length="14.02" shape="204.80,189.60 202.40,193.20 200.00,194.40 197.60,193.20 195.20,189.60"/>
    </edge>
    <edge id=":center_7" function="internal">
        <lane id=":center_7_0" index="0" speed="9.26" length="19.35" shape="201.60,189.60 200.85,194.85 198.60,198.60 194.85,200.85 189.60,201.60"/>
    </edge>
    <edge id=":center_8" function="internal">
        <lane id=":center_8_0" index="0" speed="3.65" length="4.67" shape="201.60,189.60 200.80,190.80 200.00,191.20 199.20,190.80 198.40,189.60"/>
    </edge>
    <edge id=":center_9" function="internal">
        <lane id=":center_9_0" index="0" speed="5.58" length="14.02" shape="189.60,195.20 193.20,197.60 194.40,200.00 193.20,202.40 189.60,204.80"/>
    </edge>
    <edge id=":center_10" function="internal">
        <lane id=":center_10_0" index="0" speed="9.26" length="19.35" shape="189.60,198.40 194.85,199.15 198.60,201.40 200.85,205.15 201.60,210.40"/>
    </edge>
    <edge id=":center_11" function="internal">
        <lane id=":center_11_0" index="0" speed="3.65" length="4.67" shape="189.60,198.40 190.80,199.20 191.20,200.00 190.80,200.80 189.60,201.60"/>
    </edge>

    <edge id="east_approach" from="east_in" to="center" priority="1">
        <lane id="east_approach_0" index="0" speed="50.00" length="89.60" shape="300.00,204.80 210.40,204.80"/>
        <lane id="east_approach_1" index="1" speed="50.00" length="89.60" shape="300.00,201.60 210.40,201.60"/>
    </edge>
    <edge id="east_exit" from="center" to="east_out" priority="1">
        <lane id="east_exit_0" index="0" speed="50.00" length="189.60" shape="210.40,195.20 400.00,195.20"/>
        <lane id="east_exit_1" index="1" speed="50.00" length="189.60" shape="210.40,198.40 400.00,198.40"/>
    </edge>
    <edge id="north_approach" from="north_in" to="center" priority="1">
        <lane id="north_approach_0" index="0" speed="50.00" length="89.60" shape="195.20,300.00 195.20,210.40"/>
        <lane id="north_approach_1" index="1" speed="50.00" length="89.60" shape="198.40,300.00 198.40,210.40"/>
    </edge>
    <edge id="north_exit" from="center" to="north_out" priority="1">
        <lane id="north_exit_0" index="0" speed="50.00" length="189.60" shape="204.80,210.40 204.80,400.00"/>
        <lane id="north_exit_1" index="1" speed="50.00" length="189.60" shape="201.60,210.40 201.60,400.00"/>
    </edge>
    <edge id="south_approach" from="south_in" to="center" priority="1">
        <lane id="south_approach_0" index="0" speed="50.00" length="89.60" shape="204.80,100.00 204.80,189.60"/>
        <lane id="south_approach_1" index="1" speed="50.00" length="89.60" shape="201.60,100.00 201.60,189.60"/>
    </edge>
    <edge id="south_exit" from="center" to="south_out" priority="1">
        <lane id="south_exit_0" index="0" speed="50.00" length="189.60" shape="195.20,189.60 195.20,0.00"/>
        <lane id="south_exit_1" index="1" speed="50.00" length="189.60" shape="198.40,189.60 198.40,0.00"/>
    </edge>
    <edge id="west_approach" from="west_in" to="center" priority="1">
        <lane id="west_approach_0" index="0" speed="50.00" length="89.60" shape="100.00,195.20 189.60,195.20"/>
        <lane id="west_approach_1" index="1" speed="50.00" length="89.60" shape="100.00,198.40 189.60,198.40"/>
    </edge>
    <edge id="west_exit" from="center" to="west_out" priority="1">
        <lane id="west_exit_0" index="0" speed="50.00" length="189.60" shape="189.60,204.80 0.00,204.80"/>
        <lane id="west_exit_1" index="1" speed="50.00" length="189.60" shape="189.60,201.60 0.00,201.60"/>
    </edge>

    <tlLogic id="center" type="static" programID="0" offset="0">
        <phase duration="35" state="GGGrrrGGGrrr"/>
        <phase duration="10" state="yyyrrryyyrrr"/>
        <phase duration="35" state="rrrGGGrrrGGG"/>
        <phase duration="10" state="rrryyyrrryyy"/>
    </tlLogic>

    <junction id="center" type="traffic_light" x="200.00" y="200.00" incLanes="north_approach_0 north_approach_1 east_approach_0 east_approach_1 south_approach_0 south_approach_1 west_approach_0 west_approach_1" intLanes=":center_0_0 :center_1_0 :center_2_0 :center_3_0 :center_4_0 :center_5_0 :center_6_0 :center_7_0 :center_8_0 :center_9_0 :center_10_0 :center_11_0" shape="193.60,210.40 206.40,210.40 206.84,208.18 207.40,207.40 208.18,206.84 209.18,206.51 210.40,206.40 210.40,193.60 208.18,193.16 207.40,192.60 206.84,191.82 206.51,190.82 206.40,189.60 193.60,189.60 193.16,191.82 192.60,192.60 191.82,193.16 190.82,193.49 189.60,193.60 189.60,206.40 191.82,206.84 192.60,207.40 193.16,208.18 193.49,209.18">
        <request index="0"  response="010000000000" foes="010000000000" cont="0"/>
        <request index="1"  response="000000000000" foes="010000111000" cont="0"/>
        <request index="2"  response="010000000000" foes="010000000000" cont="0"/>
        <request index="3"  response="000000000010" foes="000000000010" cont="0"/>
        <request index="4"  response="000010000010" foes="000111000010" cont="0"/>
        <request index="5"  response="000000000010" foes="000000000010" cont="0"/>
        <request index="6"  response="000000010000" foes="000000010000" cont="0"/>
        <request index="7"  response="000000000000" foes="111000010000" cont="0"/>
        <request index="8"  response="000000010000" foes="000000010000" cont="0"/>
        <request index="9"  response="000010000000" foes="000010000000" cont="0"/>
        <request index="10" response="000010000010" foes="000010000111" cont="0"/>
        <request index="11" response="000010000000" foes="000010000000" cont="0"/>
    </junction>
    <junction id="east_in" type="dead_end" x="300.00" y="200.00" incLanes="" intLanes="" shape="300.00,200.00 300.00,206.40"/>
    <junction id="east_out" type="dead_end" x="400.00" y="200.00" incLanes="east_exit_0 east_exit_1" intLanes="" shape="400.00,193.60 400.00,200.00"/>
    <junction id="north_in" type="dead_end" x="200.00" y="300.00" incLanes="" intLanes="" shape="200.00,300.00 193.60,300.00"/>
    <junction id="north_out" type="dead_end" x="200.00" y="400.00" incLanes="north_exit_0 north_exit_1" intLanes="" shape="206.40,400.00 200.00,400.00"/>
    <junction id="south_in" type="dead_end" x="200.00" y="100.00" incLanes="" intLanes="" shape="200.00,100.00 206.40,100.00"/>
    <junction id="south_out" type="dead_end" x="200.00" y="0.00" incLanes="south_exit_0 south_exit_1" intLanes="" shape="193.60,0.00 200.00,0.00"/>
    <junction id="west_in" type="dead_end" x="100.00" y="200.00" incLanes="" intLanes="" shape="100.00,200.00 100.00,193.60"/>
    <junction id="west_out" type="dead_end" x="0.00" y="200.00" incLanes="west_exit_0 west_exit_1" intLanes="" shape="0.00,206.40 0.00,200.00"/>

    <connection from="east_approach" to="east_exit" fromLane="0" toLane="0" via=":center_3_0" tl="center" linkIndex="3" dir="t" state="o"/>
    <connection from="east_approach" to="south_exit" fromLane="1" toLane="1" via=":center_4_0" tl="center" linkIndex="4" dir="l" state="o"/>
    <connection from="east_approach" to="east_exit" fromLane="1" toLane="1" via=":center_5_0" tl="center" linkIndex="5" dir="t" state="o"/>
    <connection from="north_approach" to="north_exit" fromLane="0" toLane="0" via=":center_0_0" tl="center" linkIndex="0" dir="t" state="o"/>
    <connection from="north_approach" to="east_exit" fromLane="1" toLane="1" via=":center_1_0" tl="center" linkIndex="1" dir="l" state="O"/>
    <connection from="north_approach" to="north_exit" fromLane="1" toLane="1" via=":center_2_0" tl="center" linkIndex="2" dir="t" state="o"/>
    <connection from="south_approach" to="south_exit" fromLane="0" toLane="0" via=":center_6_0" tl="center" linkIndex="6" dir="t" state="o"/>
    <connection from="south_approach" to="west_exit" fromLane="1" toLane="1" via=":center_7_0" tl="center" linkIndex="7" dir="l" state="O"/>
    <connection from="south_approach" to="south_exit" fromLane="1" toLane="1" via=":center_8_0" tl="center" linkIndex="8" dir="t" state="o"/>
    <connection from="west_approach" to="west_exit" fromLane="0" toLane="0" via=":center_9_0" tl="center" linkIndex="9" dir="t" state="o"/>
    <connection from="west_approach" to="north_exit" fromLane="1" toLane="1" via=":center_10_0" tl="center" linkIndex="10" dir="l" state="o"/>
    <connection from="west_approach" to="west_exit" fromLane="1" toLane="1" via=":center_11_0" tl="center" linkIndex="11" dir="t" state="o"/>

    <connection from=":center_0" to="north_exit" fromLane="0" toLane="0" dir="t" state="M"/>
    <connection from=":center_1" to="east_exit" fromLane="0" toLane="1" dir="l" state="M"/>
    <connection from=":center_2" to="north_exit" fromLane="0" toLane="1" dir="t" state="M"/>
    <connection from=":center_3" to="east_exit" fromLane="0" toLane="0" dir="t" state="M"/>
    <connection from=":center_4" to="south_exit" fromLane="0" toLane="1" dir="l" state="M"/>
    <connection from=":center_5" to="east_exit" fromLane="0" toLane="1" dir="t" state="M"/>
    <connection from=":center_6" to="south_exit" fromLane="0" toLane="0" dir="t" state="M"/>
    <connection from=":center_7" to="west_exit" fromLane="0" toLane="1" dir="l" state="M"/>
    <connection from=":center_8" to="south_exit" fromLane="0" toLane="1" dir="t" state="M"/>
    <connection from=":center_9" to="west_exit" fromLane="0" toLane="0" dir="t" state="M"/>
    <connection from=":center_10" to="north_exit" fromLane="0" toLane="1" dir="l" state="M"/>
    <connection from=":center_11" to="west_exit" fromLane="0" toLane="1" dir="t" state="M"/>

</net>
