<?xml version="1.0" encoding="UTF-8"?>
<nodes>
    <!-- Intersection center -->
    <node id="center" x="0" y="0" type="priority"/>
    
    <!-- North approach -->
    <node id="north" x="0" y="100" type="priority"/>
    
    <!-- South approach -->
    <node id="south" x="0" y="-100" type="priority"/>
    
    <!-- East approach -->
    <node id="east" x="100" y="0" type="priority"/>
    
    <!-- West approach -->
    <node id="west" x="-100" y="0" type="priority"/>
</nodes>