<?xml version="1.0" encoding="UTF-8"?>

<!-- generated on 2025-09-17 17:52:53 by Eclipse SUMO netconvert Version 1.24.0
<netconvertConfiguration xmlns:xsi="http://www.w3.org/2001/XMLSchema-instance" xsi:noNamespaceSchemaLocation="http://sumo.dlr.de/xsd/netconvertConfiguration.xsd">

    <input>
        <node-files value="networks/simple_intersection.nod.xml"/>
        <edge-files value="networks/simple_intersection.edg.xml"/>
    </input>

    <output>
        <output-file value="networks/simple_intersection.net.xml"/>
    </output>

</netconvertConfiguration>
-->

<net version="1.20" junctionCornerDetail="5" limitTurnSpeed="5.50" xmlns:xsi="http://www.w3.org/2001/XMLSchema-instance" xsi:noNamespaceSchemaLocation="http://sumo.dlr.de/xsd/net_file.xsd">

    <location netOffset="100.00,100.00" convBoundary="0.00,0.00,200.00,200.00" origBoundary="-100.00,-100.00,100.00,100.00" projParameter="!"/>

    <edge id=":east_0" function="internal">
        <lane id=":east_0_0" index="0" speed="3.65" length="4.67" shape="200.00,98.40 201.20,99.20 201.60,100.00 201.20,100.80 200.00,101.60"/>
    </edge>
    <edge id=":north_0" function="internal">
        <lane id=":north_0_0" index="0" speed="3.65" length="4.67" shape="101.60,200.00 100.80,201.20 100.00,201.60 99.20,201.20 98.40,200.00"/>
    </edge>
    <edge id=":south_0" function="internal">
        <lane id=":south_0_0" index="0" speed="3.65" length="4.67" shape="98.40,0.00 99.20,-1.20 100.00,-1.60 100.80,-1.20 101.60,0.00"/>
    </edge>
    <edge id=":west_0" function="internal">
        <lane id=":west_0_0" index="0" speed="3.65" length="4.67" shape="0.00,101.60 -1.20,100.80 -1.60,100.00 -1.20,99.20 0.00,98.40"/>
    </edge>

    <edge id="east_to_west" from="east" to="west" priority="1">
        <lane id="east_to_west_0" index="0" speed="13.89" length="200.00" shape="200.00,104.80 0.00,104.80"/>
        <lane id="east_to_west_1" index="1" speed="13.89" length="200.00" shape="200.00,101.60 0.00,101.60"/>
    </edge>
    <edge id="north_to_south" from="north" to="south" priority="1">
        <lane id="north_to_south_0" index="0" speed="13.89" length="200.00" shape="95.20,200.00 95.20,0.00"/>
        <lane id="north_to_south_1" index="1" speed="13.89" length="200.00" shape="98.40,200.00 98.40,0.00"/>
    </edge>
    <edge id="south_to_north" from="south" to="north" priority="1">
        <lane id="south_to_north_0" index="0" speed="13.89" length="200.00" shape="104.80,0.00 104.80,200.00"/>
        <lane id="south_to_north_1" index="1" speed="13.89" length="200.00" shape="101.60,0.00 101.60,200.00"/>
    </edge>
    <edge id="west_to_east" from="west" to="east" priority="1">
        <lane id="west_to_east_0" index="0" speed="13.89" length="200.00" shape="0.00,95.20 200.00,95.20"/>
        <lane id="west_to_east_1" index="1" speed="13.89" length="200.00" shape="0.00,98.40 200.00,98.40"/>
    </edge>

    <junction id="east" type="priority" x="200.00" y="100.00" incLanes="west_to_east_0 west_to_east_1" intLanes=":east_0_0" shape="200.00,100.00 200.00,93.60 200.00,100.00">
        <request index="0" response="0" foes="0" cont="0"/>
    </junction>
    <junction id="north" type="priority" x="100.00" y="200.00" incLanes="south_to_north_0 south_to_north_1" intLanes=":north_0_0" shape="100.00,200.00 106.40,200.00 100.00,200.00">
        <request index="0" response="0" foes="0" cont="0"/>
    </junction>
    <junction id="south" type="priority" x="100.00" y="0.00" incLanes="north_to_south_0 north_to_south_1" intLanes=":south_0_0" shape="100.00,0.00 93.60,0.00 100.00,0.00">
        <request index="0" response="0" foes="0" cont="0"/>
    </junction>
    <junction id="west" type="priority" x="0.00" y="100.00" incLanes="east_to_west_0 east_to_west_1" intLanes=":west_0_0" shape="0.00,100.00 0.00,106.40 0.00,100.00">
        <request index="0" response="0" foes="0" cont="0"/>
    </junction>

    <connection from="east_to_west" to="west_to_east" fromLane="1" toLane="1" via=":west_0_0" dir="t" state="M"/>
    <connection from="north_to_south" to="south_to_north" fromLane="1" toLane="1" via=":south_0_0" dir="t" state="M"/>
    <connection from="south_to_north" to="north_to_south" fromLane="1" toLane="1" via=":north_0_0" dir="t" state="M"/>
    <connection from="west_to_east" to="east_to_west" fromLane="1" toLane="1" via=":east_0_0" dir="t" state="M"/>

    <connection from=":east_0" to="east_to_west" fromLane="0" toLane="1" dir="t" state="M"/>
    <connection from=":north_0" to="north_to_south" fromLane="0" toLane="1" dir="t" state="M"/>
    <connection from=":south_0" to="south_to_north" fromLane="0" toLane="1" dir="t" state="M"/>
    <connection from=":west_0" to="west_to_east" fromLane="0" toLane="1" dir="t" state="M"/>

</net>
