<?xml version="1.0" encoding="UTF-8"?>
<nodes>
    <node id="north_in" x="0" y="100" type="priority" />
    <node id="north_out" x="0" y="200" type="priority" />
    <node id="south_in" x="0" y="-100" type="priority" />
    <node id="south_out" x="0" y="-200" type="priority" />
    <node id="east_in" x="100" y="0" type="priority" />
    <node id="east_out" x="200" y="0" type="priority" />
    <node id="west_in" x="-100" y="0" type="priority" />
    <node id="west_out" x="-200" y="0" type="priority" />
    <node id="center" x="0" y="0" type="traffic_light" />
</nodes>
